<?xml version="1.0" encoding="UTF-8" standalone="yes"?>
<template encoding-version="1.3">
    <description></description>
    <groupId>9ad07e30-0199-1000-8759-6275f2ec0459</groupId>
    <name>actual_flow</name>
    <snippet>
        <connections>
            <id>065f1295-806d-3068-0000-000000000000</id>
            <parentGroupId>3f58d6df-cbc3-30fd-0000-000000000000</parentGroupId>
            <backPressureDataSizeThreshold>1 GB</backPressureDataSizeThreshold>
            <backPressureObjectThreshold>10000</backPressureObjectThreshold>
            <destination>
                <groupId>3f58d6df-cbc3-30fd-0000-000000000000</groupId>
                <id>065ff935-2337-3dac-0000-000000000000</id>
                <type>PROCESSOR</type>
            </destination>
            <flowFileExpiration>0 sec</flowFileExpiration>
            <labelIndex>1</labelIndex>
            <loadBalanceCompression>DO_NOT_COMPRESS</loadBalanceCompression>
            <loadBalancePartitionAttribute></loadBalancePartitionAttribute>
            <loadBalanceStatus>LOAD_BALANCE_NOT_CONFIGURED</loadBalanceStatus>
            <loadBalanceStrategy>DO_NOT_LOAD_BALANCE</loadBalanceStrategy>
            <name></name>
            <selectedRelationships>success</selectedRelationships>
            <source>
                <groupId>3f58d6df-cbc3-30fd-0000-000000000000</groupId>
                <id>0f9afcdf-a8aa-3cd2-0000-000000000000</id>
                <type>PROCESSOR</type>
            </source>
            <zIndex>0</zIndex>
        </connections>
        <connections>
            <id>737d631e-1b44-3622-0000-000000000000</id>
            <parentGroupId>3f58d6df-cbc3-30fd-0000-000000000000</parentGroupId>
            <backPressureDataSizeThreshold>1 GB</backPressureDataSizeThreshold>
            <backPressureObjectThreshold>10000</backPressureObjectThreshold>
            <destination>
                <groupId>3f58d6df-cbc3-30fd-0000-000000000000</groupId>
                <id>7cd154ed-419e-3af2-0000-000000000000</id>
                <type>PROCESSOR</type>
            </destination>
            <flowFileExpiration>0 sec</flowFileExpiration>
            <labelIndex>1</labelIndex>
            <loadBalanceCompression>DO_NOT_COMPRESS</loadBalanceCompression>
            <loadBalancePartitionAttribute></loadBalancePartitionAttribute>
            <loadBalanceStatus>LOAD_BALANCE_NOT_CONFIGURED</loadBalanceStatus>
            <loadBalanceStrategy>DO_NOT_LOAD_BALANCE</loadBalanceStrategy>
            <name></name>
            <selectedRelationships>success</selectedRelationships>
            <source>
                <groupId>3f58d6df-cbc3-30fd-0000-000000000000</groupId>
                <id>ee610eea-2510-3427-0000-000000000000</id>
                <type>PROCESSOR</type>
            </source>
            <zIndex>0</zIndex>
        </connections>
        <connections>
            <id>ffe9fc5b-923a-3b44-0000-000000000000</id>
            <parentGroupId>3f58d6df-cbc3-30fd-0000-000000000000</parentGroupId>
            <backPressureDataSizeThreshold>1 GB</backPressureDataSizeThreshold>
            <backPressureObjectThreshold>10000</backPressureObjectThreshold>
            <destination>
                <groupId>3f58d6df-cbc3-30fd-0000-000000000000</groupId>
                <id>2eeea69c-4078-33b2-0000-000000000000</id>
                <type>PROCESSOR</type>
            </destination>
            <flowFileExpiration>0 sec</flowFileExpiration>
            <labelIndex>1</labelIndex>
            <loadBalanceCompression>DO_NOT_COMPRESS</loadBalanceCompression>
            <loadBalancePartitionAttribute></loadBalancePartitionAttribute>
            <loadBalanceStatus>LOAD_BALANCE_NOT_CONFIGURED</loadBalanceStatus>
            <loadBalanceStrategy>DO_NOT_LOAD_BALANCE</loadBalanceStrategy>
            <name></name>
            <selectedRelationships>success</selectedRelationships>
            <source>
                <groupId>3f58d6df-cbc3-30fd-0000-000000000000</groupId>
                <id>065ff935-2337-3dac-0000-000000000000</id>
                <type>PROCESSOR</type>
            </source>
            <zIndex>0</zIndex>
        </connections>
        <controllerServices>
            <id>b0eab0de-b539-3de6-0000-000000000000</id>
            <parentGroupId>3f58d6df-cbc3-30fd-0000-000000000000</parentGroupId>
            <bulletinLevel>WARN</bulletinLevel>
            <bundle>
                <artifact>nifi-dbcp-service-nar</artifact>
                <group>org.apache.nifi</group>
                <version>1.23.2</version>
            </bundle>
            <comments></comments>
            <descriptors>
                <entry>
                    <key>Database Connection URL</key>
                    <value>
                        <name>Database Connection URL</name>
                    </value>
                </entry>
                <entry>
                    <key>Database Driver Class Name</key>
                    <value>
                        <name>Database Driver Class Name</name>
                    </value>
                </entry>
                <entry>
                    <key>database-driver-locations</key>
                    <value>
                        <name>database-driver-locations</name>
                    </value>
                </entry>
                <entry>
                    <key>kerberos-user-service</key>
                    <value>
                        <identifiesControllerService>org.apache.nifi.kerberos.KerberosUserService</identifiesControllerService>
                        <name>kerberos-user-service</name>
                    </value>
                </entry>
                <entry>
                    <key>kerberos-credentials-service</key>
                    <value>
                        <identifiesControllerService>org.apache.nifi.kerberos.KerberosCredentialsService</identifiesControllerService>
                        <name>kerberos-credentials-service</name>
                    </value>
                </entry>
                <entry>
                    <key>kerberos-principal</key>
                    <value>
                        <name>kerberos-principal</name>
                    </value>
                </entry>
                <entry>
                    <key>kerberos-password</key>
                    <value>
                        <name>kerberos-password</name>
                    </value>
                </entry>
                <entry>
                    <key>Database User</key>
                    <value>
                        <name>Database User</name>
                    </value>
                </entry>
                <entry>
                    <key>Password</key>
                    <value>
                        <name>Password</name>
                    </value>
                </entry>
                <entry>
                    <key>Max Wait Time</key>
                    <value>
                        <name>Max Wait Time</name>
                    </value>
                </entry>
                <entry>
                    <key>Max Total Connections</key>
                    <value>
                        <name>Max Total Connections</name>
                    </value>
                </entry>
                <entry>
                    <key>Validation-query</key>
                    <value>
                        <name>Validation-query</name>
                    </value>
                </entry>
                <entry>
                    <key>dbcp-min-idle-conns</key>
                    <value>
                        <name>dbcp-min-idle-conns</name>
                    </value>
                </entry>
                <entry>
                    <key>dbcp-max-idle-conns</key>
                    <value>
                        <name>dbcp-max-idle-conns</name>
                    </value>
                </entry>
                <entry>
                    <key>dbcp-max-conn-lifetime</key>
                    <value>
                        <name>dbcp-max-conn-lifetime</name>
                    </value>
                </entry>
                <entry>
                    <key>dbcp-time-between-eviction-runs</key>
                    <value>
                        <name>dbcp-time-between-eviction-runs</name>
                    </value>
                </entry>
                <entry>
                    <key>dbcp-min-evictable-idle-time</key>
                    <value>
                        <name>dbcp-min-evictable-idle-time</name>
                    </value>
                </entry>
                <entry>
                    <key>dbcp-soft-min-evictable-idle-time</key>
                    <value>
                        <name>dbcp-soft-min-evictable-idle-time</name>
                    </value>
                </entry>
            </descriptors>
            <name>DBCPConnectionPool</name>
            <persistsState>false</persistsState>
            <properties>
                <entry>
                    <key>Database Connection URL</key>
                    <value>#{supabase.url}</value>
                </entry>
                <entry>
                    <key>Database Driver Class Name</key>
                    <value>org.postgresql.Driver</value>
                </entry>
                <entry>
                    <key>database-driver-locations</key>
                    <value>/opt/nifi/nifi-current/drivers/postgresql-42.7.4.jar</value>
                </entry>
                <entry>
                    <key>kerberos-user-service</key>
                </entry>
                <entry>
                    <key>kerberos-credentials-service</key>
                </entry>
                <entry>
                    <key>kerberos-principal</key>
                </entry>
                <entry>
                    <key>kerberos-password</key>
                </entry>
                <entry>
                    <key>Database User</key>
                    <value>#{supabase.user}</value>
                </entry>
                <entry>
                    <key>Password</key>
                </entry>
                <entry>
                    <key>Max Wait Time</key>
                    <value>500 millis</value>
                </entry>
                <entry>
                    <key>Max Total Connections</key>
                    <value>8</value>
                </entry>
                <entry>
                    <key>Validation-query</key>
                </entry>
                <entry>
                    <key>dbcp-min-idle-conns</key>
                    <value>0</value>
                </entry>
                <entry>
                    <key>dbcp-max-idle-conns</key>
                    <value>8</value>
                </entry>
                <entry>
                    <key>dbcp-max-conn-lifetime</key>
                    <value>-1</value>
                </entry>
                <entry>
                    <key>dbcp-time-between-eviction-runs</key>
                    <value>-1</value>
                </entry>
                <entry>
                    <key>dbcp-min-evictable-idle-time</key>
                    <value>30 mins</value>
                </entry>
                <entry>
                    <key>dbcp-soft-min-evictable-idle-time</key>
                    <value>-1</value>
                </entry>
            </properties>
            <state>DISABLED</state>
            <type>org.apache.nifi.dbcp.DBCPConnectionPool</type>
        </controllerServices>
        <processors>
            <id>065ff935-2337-3dac-0000-000000000000</id>
            <parentGroupId>3f58d6df-cbc3-30fd-0000-000000000000</parentGroupId>
            <position>
                <x>8.0</x>
                <y>256.0</y>
            </position>
            <bundle>
                <artifact>nifi-avro-nar</artifact>
                <group>org.apache.nifi</group>
                <version>1.23.2</version>
            </bundle>
            <config>
                <backoffMechanism>PENALIZE_FLOWFILE</backoffMechanism>
                <bulletinLevel>WARN</bulletinLevel>
                <comments></comments>
                <concurrentlySchedulableTaskCount>1</concurrentlySchedulableTaskCount>
                <descriptors>
                    <entry>
                        <key>JSON container options</key>
                        <value>
                            <name>JSON container options</name>
                        </value>
                    </entry>
                    <entry>
                        <key>Wrap Single Record</key>
                        <value>
                            <name>Wrap Single Record</name>
                        </value>
                    </entry>
                    <entry>
                        <key>Avro schema</key>
                        <value>
                            <name>Avro schema</name>
                        </value>
                    </entry>
                </descriptors>
                <executionNode>ALL</executionNode>
                <lossTolerant>false</lossTolerant>
                <maxBackoffPeriod>10 mins</maxBackoffPeriod>
                <penaltyDuration>30 sec</penaltyDuration>
                <properties>
                    <entry>
                        <key>JSON container options</key>
                        <value>array</value>
                    </entry>
                    <entry>
                        <key>Wrap Single Record</key>
                        <value>false</value>
                    </entry>
                    <entry>
                        <key>Avro schema</key>
                    </entry>
                </properties>
                <retryCount>10</retryCount>
                <runDurationMillis>0</runDurationMillis>
                <schedulingPeriod>0 sec</schedulingPeriod>
                <schedulingStrategy>TIMER_DRIVEN</schedulingStrategy>
                <yieldDuration>1 sec</yieldDuration>
            </config>
            <executionNodeRestricted>false</executionNodeRestricted>
            <name>ConvertAvroToJSON</name>
            <relationships>
                <autoTerminate>true</autoTerminate>
                <name>failure</name>
                <retry>false</retry>
            </relationships>
            <relationships>
                <autoTerminate>false</autoTerminate>
                <name>success</name>
                <retry>false</retry>
            </relationships>
            <state>RUNNING</state>
            <style/>
            <type>org.apache.nifi.processors.avro.ConvertAvroToJSON</type>
        </processors>
        <processors>
            <id>0f9afcdf-a8aa-3cd2-0000-000000000000</id>
            <parentGroupId>3f58d6df-cbc3-30fd-0000-000000000000</parentGroupId>
            <position>
                <x>16.0</x>
                <y>0.0</y>
            </position>
            <bundle>
                <artifact>nifi-standard-nar</artifact>
                <group>org.apache.nifi</group>
                <version>1.23.2</version>
            </bundle>
            <config>
                <backoffMechanism>PENALIZE_FLOWFILE</backoffMechanism>
                <bulletinLevel>WARN</bulletinLevel>
                <comments></comments>
                <concurrentlySchedulableTaskCount>1</concurrentlySchedulableTaskCount>
                <descriptors>
                    <entry>
                        <key>Database Connection Pooling Service</key>
                        <value>
                            <identifiesControllerService>org.apache.nifi.dbcp.DBCPService</identifiesControllerService>
                            <name>Database Connection Pooling Service</name>
                        </value>
                    </entry>
                    <entry>
                        <key>db-fetch-db-type</key>
                        <value>
                            <name>db-fetch-db-type</name>
                        </value>
                    </entry>
                    <entry>
                        <key>Table Name</key>
                        <value>
                            <name>Table Name</name>
                        </value>
                    </entry>
                    <entry>
                        <key>Columns to Return</key>
                        <value>
                            <name>Columns to Return</name>
                        </value>
                    </entry>
                    <entry>
                        <key>db-fetch-where-clause</key>
                        <value>
                            <name>db-fetch-where-clause</name>
                        </value>
                    </entry>
                    <entry>
                        <key>db-fetch-sql-query</key>
                        <value>
                            <name>db-fetch-sql-query</name>
                        </value>
                    </entry>
                    <entry>
                        <key>Maximum-value Columns</key>
                        <value>
                            <name>Maximum-value Columns</name>
                        </value>
                    </entry>
                    <entry>
                        <key>initial-load-strategy</key>
                        <value>
                            <name>initial-load-strategy</name>
                        </value>
                    </entry>
                    <entry>
                        <key>Max Wait Time</key>
                        <value>
                            <name>Max Wait Time</name>
                        </value>
                    </entry>
                    <entry>
                        <key>Fetch Size</key>
                        <value>
                            <name>Fetch Size</name>
                        </value>
                    </entry>
                    <entry>
                        <key>qdbt-max-rows</key>
                        <value>
                            <name>qdbt-max-rows</name>
                        </value>
                    </entry>
                    <entry>
                        <key>qdbt-output-batch-size</key>
                        <value>
                            <name>qdbt-output-batch-size</name>
                        </value>
                    </entry>
                    <entry>
                        <key>qdbt-max-frags</key>
                        <value>
                            <name>qdbt-max-frags</name>
                        </value>
                    </entry>
                    <entry>
                        <key>dbf-normalize</key>
                        <value>
                            <name>dbf-normalize</name>
                        </value>
                    </entry>
                    <entry>
                        <key>transaction-isolation-level</key>
                        <value>
                            <name>transaction-isolation-level</name>
                        </value>
                    </entry>
                    <entry>
                        <key>dbf-user-logical-types</key>
                        <value>
                            <name>dbf-user-logical-types</name>
                        </value>
                    </entry>
                    <entry>
                        <key>dbf-default-precision</key>
                        <value>
                            <name>dbf-default-precision</name>
                        </value>
                    </entry>
                    <entry>
                        <key>dbf-default-scale</key>
                        <value>
                            <name>dbf-default-scale</name>
                        </value>
                    </entry>
                </descriptors>
                <executionNode>PRIMARY</executionNode>
                <lossTolerant>false</lossTolerant>
                <maxBackoffPeriod>10 mins</maxBackoffPeriod>
                <penaltyDuration>30 sec</penaltyDuration>
                <properties>
                    <entry>
                        <key>Database Connection Pooling Service</key>
                        <value>b0eab0de-b539-3de6-0000-000000000000</value>
                    </entry>
                    <entry>
                        <key>db-fetch-db-type</key>
                        <value>Generic</value>
                    </entry>
                    <entry>
                        <key>Table Name</key>
                        <value>dim_zones</value>
                    </entry>
                    <entry>
                        <key>Columns to Return</key>
                    </entry>
                    <entry>
                        <key>db-fetch-where-clause</key>
                    </entry>
                    <entry>
                        <key>db-fetch-sql-query</key>
                    </entry>
                    <entry>
                        <key>Maximum-value Columns</key>
                    </entry>
                    <entry>
                        <key>initial-load-strategy</key>
                        <value>Start at Beginning</value>
                    </entry>
                    <entry>
                        <key>Max Wait Time</key>
                        <value>0 seconds</value>
                    </entry>
                    <entry>
                        <key>Fetch Size</key>
                        <value>0</value>
                    </entry>
                    <entry>
                        <key>qdbt-max-rows</key>
                        <value>0</value>
                    </entry>
                    <entry>
                        <key>qdbt-output-batch-size</key>
                        <value>0</value>
                    </entry>
                    <entry>
                        <key>qdbt-max-frags</key>
                        <value>0</value>
                    </entry>
                    <entry>
                        <key>dbf-normalize</key>
                        <value>false</value>
                    </entry>
                    <entry>
                        <key>transaction-isolation-level</key>
                    </entry>
                    <entry>
                        <key>dbf-user-logical-types</key>
                        <value>false</value>
                    </entry>
                    <entry>
                        <key>dbf-default-precision</key>
                        <value>10</value>
                    </entry>
                    <entry>
                        <key>dbf-default-scale</key>
                        <value>0</value>
                    </entry>
                </properties>
                <retryCount>10</retryCount>
                <runDurationMillis>0</runDurationMillis>
                <schedulingPeriod>1 min</schedulingPeriod>
                <schedulingStrategy>TIMER_DRIVEN</schedulingStrategy>
                <yieldDuration>1 sec</yieldDuration>
            </config>
            <executionNodeRestricted>true</executionNodeRestricted>
            <name>QueryDatabaseTable</name>
            <relationships>
                <autoTerminate>false</autoTerminate>
                <name>success</name>
                <retry>false</retry>
            </relationships>
            <state>STOPPED</state>
            <style/>
            <type>org.apache.nifi.processors.standard.QueryDatabaseTable</type>
        </processors>
        <processors>
            <id>2eeea69c-4078-33b2-0000-000000000000</id>
            <parentGroupId>3f58d6df-cbc3-30fd-0000-000000000000</parentGroupId>
            <position>
                <x>0.0</x>
                <y>480.0</y>
            </position>
            <bundle>
                <artifact>nifi-hadoop-nar</artifact>
                <group>org.apache.nifi</group>
                <version>1.23.2</version>
            </bundle>
            <config>
                <backoffMechanism>PENALIZE_FLOWFILE</backoffMechanism>
                <bulletinLevel>WARN</bulletinLevel>
                <comments></comments>
                <concurrentlySchedulableTaskCount>1</concurrentlySchedulableTaskCount>
                <descriptors>
                    <entry>
                        <key>Hadoop Configuration Resources</key>
                        <value>
                            <name>Hadoop Configuration Resources</name>
                        </value>
                    </entry>
                    <entry>
                        <key>kerberos-credentials-service</key>
                        <value>
                            <identifiesControllerService>org.apache.nifi.kerberos.KerberosCredentialsService</identifiesControllerService>
                            <name>kerberos-credentials-service</name>
                        </value>
                    </entry>
                    <entry>
                        <key>kerberos-user-service</key>
                        <value>
                            <identifiesControllerService>org.apache.nifi.kerberos.KerberosUserService</identifiesControllerService>
                            <name>kerberos-user-service</name>
                        </value>
                    </entry>
                    <entry>
                        <key>Kerberos Principal</key>
                        <value>
                            <name>Kerberos Principal</name>
                        </value>
                    </entry>
                    <entry>
                        <key>Kerberos Keytab</key>
                        <value>
                            <name>Kerberos Keytab</name>
                        </value>
                    </entry>
                    <entry>
                        <key>Kerberos Password</key>
                        <value>
                            <name>Kerberos Password</name>
                        </value>
                    </entry>
                    <entry>
                        <key>Kerberos Relogin Period</key>
                        <value>
                            <name>Kerberos Relogin Period</name>
                        </value>
                    </entry>
                    <entry>
                        <key>Additional Classpath Resources</key>
                        <value>
                            <name>Additional Classpath Resources</name>
                        </value>
                    </entry>
                    <entry>
                        <key>Directory</key>
                        <value>
                            <name>Directory</name>
                        </value>
                    </entry>
                    <entry>
                        <key>Conflict Resolution Strategy</key>
                        <value>
                            <name>Conflict Resolution Strategy</name>
                        </value>
                    </entry>
                    <entry>
                        <key>writing-strategy</key>
                        <value>
                            <name>writing-strategy</name>
                        </value>
                    </entry>
                    <entry>
                        <key>Block Size</key>
                        <value>
                            <name>Block Size</name>
                        </value>
                    </entry>
                    <entry>
                        <key>IO Buffer Size</key>
                        <value>
                            <name>IO Buffer Size</name>
                        </value>
                    </entry>
                    <entry>
                        <key>Replication</key>
                        <value>
                            <name>Replication</name>
                        </value>
                    </entry>
                    <entry>
                        <key>Permissions umask</key>
                        <value>
                            <name>Permissions umask</name>
                        </value>
                    </entry>
                    <entry>
                        <key>Remote Owner</key>
                        <value>
                            <name>Remote Owner</name>
                        </value>
                    </entry>
                    <entry>
                        <key>Remote Group</key>
                        <value>
                            <name>Remote Group</name>
                        </value>
                    </entry>
                    <entry>
                        <key>Compression codec</key>
                        <value>
                            <name>Compression codec</name>
                        </value>
                    </entry>
                    <entry>
                        <key>Ignore Locality</key>
                        <value>
                            <name>Ignore Locality</name>
                        </value>
                    </entry>
                </descriptors>
                <executionNode>ALL</executionNode>
                <lossTolerant>false</lossTolerant>
                <maxBackoffPeriod>10 mins</maxBackoffPeriod>
                <penaltyDuration>30 sec</penaltyDuration>
                <properties>
                    <entry>
                        <key>Hadoop Configuration Resources</key>
                        <value>/opt/hadoop/etc/hadoop/core-site.xml,/opt/hadoop/etc/hadoop/hdfs-site.xml</value>
                    </entry>
                    <entry>
                        <key>kerberos-credentials-service</key>
                    </entry>
                    <entry>
                        <key>kerberos-user-service</key>
                    </entry>
                    <entry>
                        <key>Kerberos Principal</key>
                    </entry>
                    <entry>
                        <key>Kerberos Keytab</key>
                    </entry>
                    <entry>